#P

Gaussian input prepared by ASE

0 1
O                -1.0409450000       -0.4364320000        0.0000000000
C                 0.0000000000        0.4239490000        0.0000000000
O                 1.1693720000        0.1037410000        0.0000000000
H                -0.6495700000       -1.3351340000        0.0000000000
H                -0.3778470000        1.4529670000        0.0000000000


